Version 4
SHEET 1 880 680
WIRE 80 48 80 16
WIRE 320 80 192 80
WIRE 192 96 192 80
WIRE 80 128 -48 128
WIRE 192 192 192 176
WIRE 320 192 192 192
WIRE 80 224 80 192
FLAG 320 80 cp
IOPIN 320 80 BiDir
FLAG 320 192 cn
IOPIN 320 192 BiDir
FLAG 80 16 gp
IOPIN 80 16 BiDir
FLAG 80 224 gn
IOPIN 80 224 BiDir
FLAG -48 128 gc
IOPIN -48 128 BiDir
SYMBOL bi 192 96 R0
WINDOW 3 36 42 Left 2
SYMATTR InstName B1
SYMATTR Value I=V(cp,cn)*(10n+10n*V(gc,gn))
SYMBOL res 64 32 R0
SYMATTR InstName R1
SYMATTR Value 1k
SYMBOL cap 64 128 R0
SYMATTR InstName C1
SYMATTR Value 200µ
