Version 4
SHEET 1 880 680
SYMBOL capteur_graphite 128 144 R0
SYMATTR InstName X1
